Circuit: * C:\Input.asc

.step n=1
.step n=2
.step n=3
.step n=4

Date: Fri Jan 28 14:47:42 2022
Total elapsed time: 0.071 seconds.

tnom = 27
temp = 27
method = trap
totiter = 0
traniter = 0
tranpoints = 0
accept = 0
rejected = 0
matrix size = 5
fillins = 2
solver = Normal

